<?xml version="1.0" encoding="utf-8"?>
<additional>
	<laneAreaDetector id="0_0" lanes="0_0" pos="0" endPos="345.63" freq="300" file="output/hello.E2result.xml"/>
	<laneAreaDetector id="0_1" lanes="0_1" pos="0" endPos="345.63" freq="300" file="output/hello.E2result.xml"/>
	<laneAreaDetector id="0_2" lanes="0_2" pos="0" endPos="345.63" freq="300" file="output/hello.E2result.xml"/>
	<laneAreaDetector id="0_3" lanes="0_3" pos="0" endPos="345.63" freq="300" file="output/hello.E2result.xml"/>
	<laneAreaDetector id="1_0" lanes="1_0" pos="0" endPos="48.21" freq="300" file="output/hello.E2result.xml"/>
	<laneAreaDetector id="1_1" lanes="1_1" pos="0" endPos="48.21" freq="300" file="output/hello.E2result.xml"/>
	<laneAreaDetector id="1_2" lanes="1_2" pos="0" endPos="48.21" freq="300" file="output/hello.E2result.xml"/>
	<laneAreaDetector id="1_3" lanes="1_3" pos="0" endPos="48.21" freq="300" file="output/hello.E2result.xml"/>
	<laneAreaDetector id="10_0" lanes="10_0" pos="0" endPos="321.46" freq="300" file="output/hello.E2result.xml"/>
	<laneAreaDetector id="10_1" lanes="10_1" pos="0" endPos="321.46" freq="300" file="output/hello.E2result.xml"/>
	<laneAreaDetector id="100_0" lanes="100_0" pos="0" endPos="425.10" freq="300" file="output/hello.E2result.xml"/>
	<laneAreaDetector id="1000_0" lanes="1000_0" pos="0" endPos="76.42" freq="300" file="output/hello.E2result.xml"/>
	<laneAreaDetector id="1001_0" lanes="1001_0" pos="0" endPos="238.43" freq="300" file="output/hello.E2result.xml"/>
	<laneAreaDetector id="1002_0" lanes="1002_0" pos="0" endPos="44.46" freq="300" file="output/hello.E2result.xml"/>
	<laneAreaDetector id="1003_0" lanes="1003_0" pos="0" endPos="114.07" freq="300" file="output/hello.E2result.xml"/>
	<laneAreaDetector id="1004_0" lanes="1004_0" pos="0" endPos="18.14" freq="300" file="output/hello.E2result.xml"/>
	<laneAreaDetector id="1005_0" lanes="1005_0" pos="0" endPos="19.49" freq="300" file="output/hello.E2result.xml"/>
	<laneAreaDetector id="1006_0" lanes="1006_0" pos="0" endPos="164.50" freq="300" file="output/hello.E2result.xml"/>
	<laneAreaDetector id="1007_0" lanes="1007_0" pos="0" endPos="55.60" freq="300" file="output/hello.E2result.xml"/>
	<laneAreaDetector id="1007_1" lanes="1007_1" pos="0" endPos="55.60" freq="300" file="output/hello.E2result.xml"/>
	<laneAreaDetector id="1007_2" lanes="1007_2" pos="0" endPos="55.60" freq="300" file="output/hello.E2result.xml"/>
	<laneAreaDetector id="1007_3" lanes="1007_3" pos="0" endPos="55.60" freq="300" file="output/hello.E2result.xml"/>
	<laneAreaDetector id="1007.146_0" lanes="1007.146_0" pos="0" endPos="98.14" freq="300" file="output/hello.E2result.xml"/>
	<laneAreaDetector id="1007.146_1" lanes="1007.146_1" pos="0" endPos="98.14" freq="300" file="output/hello.E2result.xml"/>
	<laneAreaDetector id="1007.146_2" lanes="1007.146_2" pos="0" endPos="98.14" freq="300" file="output/hello.E2result.xml"/>
	<laneAreaDetector id="1007.146_3" lanes="1007.146_3" pos="0" endPos="98.14" freq="300" file="output/hello.E2result.xml"/>
	<laneAreaDetector id="1007.244_0" lanes="1007.244_0" pos="0" endPos="111.55" freq="300" file="output/hello.E2result.xml"/>
	<laneAreaDetector id="1007.244_1" lanes="1007.244_1" pos="0" endPos="111.55" freq="300" file="output/hello.E2result.xml"/>
	<laneAreaDetector id="1007.244_2" lanes="1007.244_2" pos="0" endPos="111.55" freq="300" file="output/hello.E2result.xml"/>
	<laneAreaDetector id="1007.244_3" lanes="1007.244_3" pos="0" endPos="111.55" freq="300" file="output/hello.E2result.xml"/>
	<laneAreaDetector id="1007.55_0" lanes="1007.55_0" pos="0" endPos="91.19" freq="300" file="output/hello.E2result.xml"/>
	<laneAreaDetector id="1007.55_1" lanes="1007.55_1" pos="0" endPos="91.19" freq="300" file="output/hello.E2result.xml"/>
	<laneAreaDetector id="1007.55_2" lanes="1007.55_2" pos="0" endPos="91.19" freq="300" file="output/hello.E2result.xml"/>
	<laneAreaDetector id="1007.55_3" lanes="1007.55_3" pos="0" endPos="91.19" freq="300" file="output/hello.E2result.xml"/>
	<laneAreaDetector id="1009_0" lanes="1009_0" pos="0" endPos="36.78" freq="300" file="output/hello.E2result.xml"/>
	<laneAreaDetector id="1009_1" lanes="1009_1" pos="0" endPos="36.78" freq="300" file="output/hello.E2result.xml"/>
	<laneAreaDetector id="1009_2" lanes="1009_2" pos="0" endPos="36.78" freq="300" file="output/hello.E2result.xml"/>
	<laneAreaDetector id="1009_3" lanes="1009_3" pos="0" endPos="36.78" freq="300" file="output/hello.E2result.xml"/>
	<laneAreaDetector id="101_0" lanes="101_0" pos="0" endPos="1038.56" freq="300" file="output/hello.E2result.xml"/>
	<laneAreaDetector id="101_1" lanes="101_1" pos="0" endPos="1038.56" freq="300" file="output/hello.E2result.xml"/>
	<laneAreaDetector id="1010_0" lanes="1010_0" pos="0" endPos="111.92" freq="300" file="output/hello.E2result.xml"/>
	<laneAreaDetector id="1010_1" lanes="1010_1" pos="0" endPos="111.92" freq="300" file="output/hello.E2result.xml"/>
	<laneAreaDetector id="1010_2" lanes="1010_2" pos="0" endPos="111.92" freq="300" file="output/hello.E2result.xml"/>
	<laneAreaDetector id="1010_3" lanes="1010_3" pos="0" endPos="111.92" freq="300" file="output/hello.E2result.xml"/>
	<laneAreaDetector id="1010.112_0" lanes="1010.112_0" pos="0" endPos="98.80" freq="300" file="output/hello.E2result.xml"/>
	<laneAreaDetector id="1010.112_1" lanes="1010.112_1" pos="0" endPos="98.80" freq="300" file="output/hello.E2result.xml"/>
	<laneAreaDetector id="1010.112_2" lanes="1010.112_2" pos="0" endPos="98.80" freq="300" file="output/hello.E2result.xml"/>
	<laneAreaDetector id="1010.112_3" lanes="1010.112_3" pos="0" endPos="98.80" freq="300" file="output/hello.E2result.xml"/>
	<laneAreaDetector id="1010.211_0" lanes="1010.211_0" pos="0" endPos="91.42" freq="300" file="output/hello.E2result.xml"/>
	<laneAreaDetector id="1010.211_1" lanes="1010.211_1" pos="0" endPos="91.42" freq="300" file="output/hello.E2result.xml"/>
	<laneAreaDetector id="1010.211_2" lanes="1010.211_2" pos="0" endPos="91.42" freq="300" file="output/hello.E2result.xml"/>
	<laneAreaDetector id="1010.211_3" lanes="1010.211_3" pos="0" endPos="91.42" freq="300" file="output/hello.E2result.xml"/>
	<laneAreaDetector id="1010.302_0" lanes="1010.302_0" pos="0" endPos="60.57" freq="300" file="output/hello.E2result.xml"/>
	<laneAreaDetector id="1010.302_1" lanes="1010.302_1" pos="0" endPos="60.57" freq="300" file="output/hello.E2result.xml"/>
	<laneAreaDetector id="1010.302_2" lanes="1010.302_2" pos="0" endPos="60.57" freq="300" file="output/hello.E2result.xml"/>
	<laneAreaDetector id="1010.302_3" lanes="1010.302_3" pos="0" endPos="60.57" freq="300" file="output/hello.E2result.xml"/>
	<laneAreaDetector id="1011_0" lanes="1011_0" pos="0" endPos="376.94" freq="300" file="output/hello.E2result.xml"/>
	<laneAreaDetector id="1012_0" lanes="1012_0" pos="0" endPos="11.72" freq="300" file="output/hello.E2result.xml"/>
	<laneAreaDetector id="1013_0" lanes="1013_0" pos="0" endPos="150.33" freq="300" file="output/hello.E2result.xml"/>
	<laneAreaDetector id="1014_0" lanes="1014_0" pos="0" endPos="18.60" freq="300" file="output/hello.E2result.xml"/>
	<laneAreaDetector id="1015_0" lanes="1015_0" pos="0" endPos="29.14" freq="300" file="output/hello.E2result.xml"/>
	<laneAreaDetector id="1015_1" lanes="1015_1" pos="0" endPos="29.14" freq="300" file="output/hello.E2result.xml"/>
	<laneAreaDetector id="1015_2" lanes="1015_2" pos="0" endPos="29.14" freq="300" file="output/hello.E2result.xml"/>
	<laneAreaDetector id="1015_3" lanes="1015_3" pos="0" endPos="29.14" freq="300" file="output/hello.E2result.xml"/>
	<laneAreaDetector id="1016_0" lanes="1016_0" pos="0" endPos="35.10" freq="300" file="output/hello.E2result.xml"/>
	<laneAreaDetector id="1016_1" lanes="1016_1" pos="0" endPos="35.10" freq="300" file="output/hello.E2result.xml"/>
	<laneAreaDetector id="1016_2" lanes="1016_2" pos="0" endPos="35.10" freq="300" file="output/hello.E2result.xml"/>
	<laneAreaDetector id="1016_3" lanes="1016_3" pos="0" endPos="35.10" freq="300" file="output/hello.E2result.xml"/>
	<laneAreaDetector id="1016.139_0" lanes="1016.139_0" pos="0" endPos="88.71" freq="300" file="output/hello.E2result.xml"/>
	<laneAreaDetector id="1016.139_1" lanes="1016.139_1" pos="0" endPos="88.71" freq="300" file="output/hello.E2result.xml"/>
	<laneAreaDetector id="1016.139_2" lanes="1016.139_2" pos="0" endPos="88.71" freq="300" file="output/hello.E2result.xml"/>
	<laneAreaDetector id="1016.139_3" lanes="1016.139_3" pos="0" endPos="88.71" freq="300" file="output/hello.E2result.xml"/>
	<laneAreaDetector id="1016.228_0" lanes="1016.228_0" pos="0" endPos="100.05" freq="300" file="output/hello.E2result.xml"/>
	<laneAreaDetector id="1016.228_1" lanes="1016.228_1" pos="0" endPos="100.05" freq="300" file="output/hello.E2result.xml"/>
	<laneAreaDetector id="1016.228_2" lanes="1016.228_2" pos="0" endPos="100.05" freq="300" file="output/hello.E2result.xml"/>
	<laneAreaDetector id="1016.228_3" lanes="1016.228_3" pos="0" endPos="100.05" freq="300" file="output/hello.E2result.xml"/>
	<laneAreaDetector id="1016.328_0" lanes="1016.328_0" pos="0" endPos="43.74" freq="300" file="output/hello.E2result.xml"/>
	<laneAreaDetector id="1016.328_1" lanes="1016.328_1" pos="0" endPos="43.74" freq="300" file="output/hello.E2result.xml"/>
	<laneAreaDetector id="1016.328_2" lanes="1016.328_2" pos="0" endPos="43.74" freq="300" file="output/hello.E2result.xml"/>
	<laneAreaDetector id="1016.328_3" lanes="1016.328_3" pos="0" endPos="43.74" freq="300" file="output/hello.E2result.xml"/>
	<laneAreaDetector id="1016.35_0" lanes="1016.35_0" pos="0" endPos="104.60" freq="300" file="output/hello.E2result.xml"/>
	<laneAreaDetector id="1016.35_1" lanes="1016.35_1" pos="0" endPos="104.60" freq="300" file="output/hello.E2result.xml"/>
	<laneAreaDetector id="1016.35_2" lanes="1016.35_2" pos="0" endPos="104.60" freq="300" file="output/hello.E2result.xml"/>
	<laneAreaDetector id="1016.35_3" lanes="1016.35_3" pos="0" endPos="104.60" freq="300" file="output/hello.E2result.xml"/>
	<laneAreaDetector id="1017_0" lanes="1017_0" pos="0" endPos="50.20" freq="300" file="output/hello.E2result.xml"/>
	<laneAreaDetector id="1017_1" lanes="1017_1" pos="0" endPos="50.20" freq="300" file="output/hello.E2result.xml"/>
	<laneAreaDetector id="1017_2" lanes="1017_2" pos="0" endPos="50.20" freq="300" file="output/hello.E2result.xml"/>
	<laneAreaDetector id="1017_3" lanes="1017_3" pos="0" endPos="50.20" freq="300" file="output/hello.E2result.xml"/>
	<laneAreaDetector id="1017.152_0" lanes="1017.152_0" pos="0" endPos="88.15" freq="300" file="output/hello.E2result.xml"/>
	<laneAreaDetector id="1017.152_1" lanes="1017.152_1" pos="0" endPos="88.15" freq="300" file="output/hello.E2result.xml"/>
	<laneAreaDetector id="1017.152_2" lanes="1017.152_2" pos="0" endPos="88.15" freq="300" file="output/hello.E2result.xml"/>
	<laneAreaDetector id="1017.152_3" lanes="1017.152_3" pos="0" endPos="88.15" freq="300" file="output/hello.E2result.xml"/>
	<laneAreaDetector id="1017.240_0" lanes="1017.240_0" pos="0" endPos="102.60" freq="300" file="output/hello.E2result.xml"/>
	<laneAreaDetector id="1017.240_1" lanes="1017.240_1" pos="0" endPos="102.60" freq="300" file="output/hello.E2result.xml"/>
	<laneAreaDetector id="1017.240_2" lanes="1017.240_2" pos="0" endPos="102.60" freq="300" file="output/hello.E2result.xml"/>
	<laneAreaDetector id="1017.240_3" lanes="1017.240_3" pos="0" endPos="102.60" freq="300" file="output/hello.E2result.xml"/>
	<laneAreaDetector id="1017.342_0" lanes="1017.342_0" pos="0" endPos="33.21" freq="300" file="output/hello.E2result.xml"/>
	<laneAreaDetector id="1017.342_1" lanes="1017.342_1" pos="0" endPos="33.21" freq="300" file="output/hello.E2result.xml"/>
	<laneAreaDetector id="1017.342_2" lanes="1017.342_2" pos="0" endPos="33.21" freq="300" file="output/hello.E2result.xml"/>
	<laneAreaDetector id="1017.342_3" lanes="1017.342_3" pos="0" endPos="33.21" freq="300" file="output/hello.E2result.xml"/>
	<laneAreaDetector id="1017.50_0" lanes="1017.50_0" pos="0" endPos="102.25" freq="300" file="output/hello.E2result.xml"/>
	<laneAreaDetector id="1017.50_1" lanes="1017.50_1" pos="0" endPos="102.25" freq="300" file="output/hello.E2result.xml"/>
	<laneAreaDetector id="1017.50_2" lanes="1017.50_2" pos="0" endPos="102.25" freq="300" file="output/hello.E2result.xml"/>
	<laneAreaDetector id="1017.50_3" lanes="1017.50_3" pos="0" endPos="102.25" freq="300" file="output/hello.E2result.xml"/>
	<laneAreaDetector id="1018_0" lanes="1018_0" pos="0" endPos="30.12" freq="300" file="output/hello.E2result.xml"/>
	<laneAreaDetector id="1018_1" lanes="1018_1" pos="0" endPos="30.12" freq="300" file="output/hello.E2result.xml"/>
	<laneAreaDetector id="1018_2" lanes="1018_2" pos="0" endPos="30.12" freq="300" file="output/hello.E2result.xml"/>
	<laneAreaDetector id="1018_3" lanes="1018_3" pos="0" endPos="30.12" freq="300" file="output/hello.E2result.xml"/>
	<laneAreaDetector id="1019_0" lanes="1019_0" pos="0" endPos="145.92" freq="300" file="output/hello.E2result.xml"/>
	<laneAreaDetector id="102_0" lanes="102_0" pos="0" endPos="1040.91" freq="300" file="output/hello.E2result.xml"/>
	<laneAreaDetector id="102_1" lanes="102_1" pos="0" endPos="1040.91" freq="300" file="output/hello.E2result.xml"/>
	<laneAreaDetector id="1020_0" lanes="1020_0" pos="0" endPos="6.30" freq="300" file="output/hello.E2result.xml"/>
	<laneAreaDetector id="1021_0" lanes="1021_0" pos="0" endPos="13.42" freq="300" file="output/hello.E2result.xml"/>
	<laneAreaDetector id="1021_1" lanes="1021_1" pos="0" endPos="13.42" freq="300" file="output/hello.E2result.xml"/>
	<laneAreaDetector id="1021_2" lanes="1021_2" pos="0" endPos="13.42" freq="300" file="output/hello.E2result.xml"/>
	<laneAreaDetector id="1021_3" lanes="1021_3" pos="0" endPos="13.42" freq="300" file="output/hello.E2result.xml"/>
	<laneAreaDetector id="1021.13_0" lanes="1021.13_0" pos="0" endPos="81.01" freq="300" file="output/hello.E2result.xml"/>
	<laneAreaDetector id="1021.13_1" lanes="1021.13_1" pos="0" endPos="81.01" freq="300" file="output/hello.E2result.xml"/>
	<laneAreaDetector id="1021.13_2" lanes="1021.13_2" pos="0" endPos="81.01" freq="300" file="output/hello.E2result.xml"/>
	<laneAreaDetector id="1021.13_3" lanes="1021.13_3" pos="0" endPos="81.01" freq="300" file="output/hello.E2result.xml"/>
	<laneAreaDetector id="1021.94_0" lanes="1021.94_0" pos="0" endPos="77.15" freq="300" file="output/hello.E2result.xml"/>
	<laneAreaDetector id="1021.94_1" lanes="1021.94_1" pos="0" endPos="77.15" freq="300" file="output/hello.E2result.xml"/>
	<laneAreaDetector id="1021.94_2" lanes="1021.94_2" pos="0" endPos="77.15" freq="300" file="output/hello.E2result.xml"/>
	<laneAreaDetector id="1021.94_3" lanes="1021.94_3" pos="0" endPos="77.15" freq="300" file="output/hello.E2result.xml"/>
	<laneAreaDetector id="1022_0" lanes="1022_0" pos="0" endPos="3.24" freq="300" file="output/hello.E2result.xml"/>
	<laneAreaDetector id="1022_1" lanes="1022_1" pos="0" endPos="3.24" freq="300" file="output/hello.E2result.xml"/>
	<laneAreaDetector id="1022_2" lanes="1022_2" pos="0" endPos="3.24" freq="300" file="output/hello.E2result.xml"/>
	<laneAreaDetector id="1022_3" lanes="1022_3" pos="0" endPos="3.24" freq="300" file="output/hello.E2result.xml"/>
	<laneAreaDetector id="1022.150_0" lanes="1022.150_0" pos="0" endPos="33.73" freq="300" file="output/hello.E2result.xml"/>
	<laneAreaDetector id="1022.150_1" lanes="1022.150_1" pos="0" endPos="33.73" freq="300" file="output/hello.E2result.xml"/>
	<laneAreaDetector id="1022.150_2" lanes="1022.150_2" pos="0" endPos="33.73" freq="300" file="output/hello.E2result.xml"/>
	<laneAreaDetector id="1022.150_3" lanes="1022.150_3" pos="0" endPos="33.73" freq="300" file="output/hello.E2result.xml"/>
	<laneAreaDetector id="1022.48_0" lanes="1022.48_0" pos="0" endPos="102.98" freq="300" file="output/hello.E2result.xml"/>
	<laneAreaDetector id="1022.48_1" lanes="1022.48_1" pos="0" endPos="102.98" freq="300" file="output/hello.E2result.xml"/>
	<laneAreaDetector id="1022.48_2" lanes="1022.48_2" pos="0" endPos="102.98" freq="300" file="output/hello.E2result.xml"/>
	<laneAreaDetector id="1022.48_3" lanes="1022.48_3" pos="0" endPos="102.98" freq="300" file="output/hello.E2result.xml"/>
	<laneAreaDetector id="1023_0" lanes="1023_0" pos="0" endPos="6.56" freq="300" file="output/hello.E2result.xml"/>
	<laneAreaDetector id="1023_1" lanes="1023_1" pos="0" endPos="6.56" freq="300" file="output/hello.E2result.xml"/>
	<laneAreaDetector id="1023_2" lanes="1023_2" pos="0" endPos="6.56" freq="300" file="output/hello.E2result.xml"/>
	<laneAreaDetector id="1023_3" lanes="1023_3" pos="0" endPos="6.56" freq="300" file="output/hello.E2result.xml"/>
	<laneAreaDetector id="1024_0" lanes="1024_0" pos="0" endPos="29.61" freq="300" file="output/hello.E2result.xml"/>
	<laneAreaDetector id="1024_1" lanes="1024_1" pos="0" endPos="29.61" freq="300" file="output/hello.E2result.xml"/>
	<laneAreaDetector id="1024_2" lanes="1024_2" pos="0" endPos="29.61" freq="300" file="output/hello.E2result.xml"/>
	<laneAreaDetector id="1024_3" lanes="1024_3" pos="0" endPos="29.61" freq="300" file="output/hello.E2result.xml"/>
	<laneAreaDetector id="1024.133_0" lanes="1024.133_0" pos="0" endPos="108.52" freq="300" file="output/hello.E2result.xml"/>
	<laneAreaDetector id="1024.133_1" lanes="1024.133_1" pos="0" endPos="108.52" freq="300" file="output/hello.E2result.xml"/>
	<laneAreaDetector id="1024.133_2" lanes="1024.133_2" pos="0" endPos="108.52" freq="300" file="output/hello.E2result.xml"/>
	<laneAreaDetector id="1024.133_3" lanes="1024.133_3" pos="0" endPos="108.52" freq="300" file="output/hello.E2result.xml"/>
	<laneAreaDetector id="1024.133.108_0" lanes="1024.133.108_0" pos="0" endPos="82.13" freq="300" file="output/hello.E2result.xml"/>
	<laneAreaDetector id="1024.133.108_1" lanes="1024.133.108_1" pos="0" endPos="82.13" freq="300" file="output/hello.E2result.xml"/>
	<laneAreaDetector id="1024.133.108_2" lanes="1024.133.108_2" pos="0" endPos="82.13" freq="300" file="output/hello.E2result.xml"/>
	<laneAreaDetector id="1024.133.108_3" lanes="1024.133.108_3" pos="0" endPos="82.13" freq="300" file="output/hello.E2result.xml"/>
	<laneAreaDetector id="1024.29_0" lanes="1024.29_0" pos="0" endPos="103.50" freq="300" file="output/hello.E2result.xml"/>
	<laneAreaDetector id="1024.29_1" lanes="1024.29_1" pos="0" endPos="103.50" freq="300" file="output/hello.E2result.xml"/>
	<laneAreaDetector id="1024.29_2" lanes="1024.29_2" pos="0" endPos="103.50" freq="300" file="output/hello.E2result.xml"/>
	<laneAreaDetector id="1024.29_3" lanes="1024.29_3" pos="0" endPos="103.50" freq="300" file="output/hello.E2result.xml"/>
	<laneAreaDetector id="1024.324_0" lanes="1024.324_0" pos="0" endPos="21.12" freq="300" file="output/hello.E2result.xml"/>
	<laneAreaDetector id="1024.324_1" lanes="1024.324_1" pos="0" endPos="21.12" freq="300" file="output/hello.E2result.xml"/>
	<laneAreaDetector id="1024.324_2" lanes="1024.324_2" pos="0" endPos="21.12" freq="300" file="output/hello.E2result.xml"/>
	<laneAreaDetector id="1024.324_3" lanes="1024.324_3" pos="0" endPos="21.12" freq="300" file="output/hello.E2result.xml"/>
	<laneAreaDetector id="1025_0" lanes="1025_0" pos="0" endPos="6.27" freq="300" file="output/hello.E2result.xml"/>
	<laneAreaDetector id="1025_1" lanes="1025_1" pos="0" endPos="6.27" freq="300" file="output/hello.E2result.xml"/>
	<laneAreaDetector id="1025_2" lanes="1025_2" pos="0" endPos="6.27" freq="300" file="output/hello.E2result.xml"/>
	<laneAreaDetector id="1025_3" lanes="1025_3" pos="0" endPos="6.27" freq="300" file="output/hello.E2result.xml"/>
	<laneAreaDetector id="1026_0" lanes="1026_0" pos="0" endPos="71.82" freq="300" file="output/hello.E2result.xml"/>
	<laneAreaDetector id="1027_0" lanes="1027_0" pos="0" endPos="6.23" freq="300" file="output/hello.E2result.xml"/>
	<laneAreaDetector id="1028_0" lanes="1028_0" pos="0" endPos="11.77" freq="300" file="output/hello.E2result.xml"/>
	<laneAreaDetector id="1029_0" lanes="1029_0" pos="0" endPos="6.25" freq="300" file="output/hello.E2result.xml"/>
	<laneAreaDetector id="103_0" lanes="103_0" pos="0" endPos="62.76" freq="300" file="output/hello.E2result.xml"/>
	<laneAreaDetector id="103_1" lanes="103_1" pos="0" endPos="62.76" freq="300" file="output/hello.E2result.xml"/>
	<laneAreaDetector id="1030_0" lanes="1030_0" pos="0" endPos="59.38" freq="300" file="output/hello.E2result.xml"/>
	<laneAreaDetector id="1030_1" lanes="1030_1" pos="0" endPos="59.38" freq="300" file="output/hello.E2result.xml"/>
	<laneAreaDetector id="1030_2" lanes="1030_2" pos="0" endPos="59.38" freq="300" file="output/hello.E2result.xml"/>
	<laneAreaDetector id="1030_3" lanes="1030_3" pos="0" endPos="59.38" freq="300" file="output/hello.E2result.xml"/>
	<laneAreaDetector id="1030.59_0" lanes="1030.59_0" pos="0" endPos="97.80" freq="300" file="output/hello.E2result.xml"/>
	<laneAreaDetector id="1030.59_1" lanes="1030.59_1" pos="0" endPos="97.80" freq="300" file="output/hello.E2result.xml"/>
	<laneAreaDetector id="1030.59_2" lanes="1030.59_2" pos="0" endPos="97.80" freq="300" file="output/hello.E2result.xml"/>
	<laneAreaDetector id="1030.59_3" lanes="1030.59_3" pos="0" endPos="97.80" freq="300" file="output/hello.E2result.xml"/>
	<laneAreaDetector id="1030.59.97_0" lanes="1030.59.97_0" pos="0" endPos="33.22" freq="300" file="output/hello.E2result.xml"/>
	<laneAreaDetector id="1030.59.97_1" lanes="1030.59.97_1" pos="0" endPos="33.22" freq="300" file="output/hello.E2result.xml"/>
	<laneAreaDetector id="1030.59.97_2" lanes="1030.59.97_2" pos="0" endPos="33.22" freq="300" file="output/hello.E2result.xml"/>
	<laneAreaDetector id="1030.59.97_3" lanes="1030.59.97_3" pos="0" endPos="33.22" freq="300" file="output/hello.E2result.xml"/>
	<laneAreaDetector id="1032.101_0" lanes="1032.101_0" pos="0" endPos="58.34" freq="300" file="output/hello.E2result.xml"/>
	<laneAreaDetector id="1032.101_1" lanes="1032.101_1" pos="0" endPos="58.34" freq="300" file="output/hello.E2result.xml"/>
	<laneAreaDetector id="1032.101_2" lanes="1032.101_2" pos="0" endPos="58.34" freq="300" file="output/hello.E2result.xml"/>
	<laneAreaDetector id="1032.101_3" lanes="1032.101_3" pos="0" endPos="58.34" freq="300" file="output/hello.E2result.xml"/>
	<laneAreaDetector id="1033_0" lanes="1033_0" pos="0" endPos="33.79" freq="300" file="output/hello.E2result.xml"/>
	<laneAreaDetector id="1033_1" lanes="1033_1" pos="0" endPos="33.79" freq="300" file="output/hello.E2result.xml"/>
	<laneAreaDetector id="1033_2" lanes="1033_2" pos="0" endPos="33.79" freq="300" file="output/hello.E2result.xml"/>
	<laneAreaDetector id="1033_3" lanes="1033_3" pos="0" endPos="33.79" freq="300" file="output/hello.E2result.xml"/>
	<laneAreaDetector id="1033.33_0" lanes="1033.33_0" pos="0" endPos="96.34" freq="300" file="output/hello.E2result.xml"/>
	<laneAreaDetector id="1033.33_1" lanes="1033.33_1" pos="0" endPos="96.34" freq="300" file="output/hello.E2result.xml"/>
	<laneAreaDetector id="1033.33_2" lanes="1033.33_2" pos="0" endPos="96.34" freq="300" file="output/hello.E2result.xml"/>
	<laneAreaDetector id="1033.33_3" lanes="1033.33_3" pos="0" endPos="96.34" freq="300" file="output/hello.E2result.xml"/>
	<laneAreaDetector id="1034_0" lanes="1034_0" pos="0" endPos="67.90" freq="300" file="output/hello.E2result.xml"/>
	<laneAreaDetector id="1034_1" lanes="1034_1" pos="0" endPos="67.90" freq="300" file="output/hello.E2result.xml"/>
	<laneAreaDetector id="1034_2" lanes="1034_2" pos="0" endPos="67.90" freq="300" file="output/hello.E2result.xml"/>
	<laneAreaDetector id="1034_3" lanes="1034_3" pos="0" endPos="67.90" freq="300" file="output/hello.E2result.xml"/>
	<laneAreaDetector id="1034.68_0" lanes="1034.68_0" pos="0" endPos="96.10" freq="300" file="output/hello.E2result.xml"/>
	<laneAreaDetector id="1034.68_1" lanes="1034.68_1" pos="0" endPos="96.10" freq="300" file="output/hello.E2result.xml"/>
	<laneAreaDetector id="1034.68_2" lanes="1034.68_2" pos="0" endPos="96.10" freq="300" file="output/hello.E2result.xml"/>
	<laneAreaDetector id="1034.68_3" lanes="1034.68_3" pos="0" endPos="96.10" freq="300" file="output/hello.E2result.xml"/>
	<laneAreaDetector id="1034.68.195_0" lanes="1034.68.195_0" pos="0" endPos="108.72" freq="300" file="output/hello.E2result.xml"/>
	<laneAreaDetector id="1034.68.195_1" lanes="1034.68.195_1" pos="0" endPos="108.72" freq="300" file="output/hello.E2result.xml"/>
	<laneAreaDetector id="1034.68.195_2" lanes="1034.68.195_2" pos="0" endPos="108.72" freq="300" file="output/hello.E2result.xml"/>
	<laneAreaDetector id="1034.68.195_3" lanes="1034.68.195_3" pos="0" endPos="108.72" freq="300" file="output/hello.E2result.xml"/>
	<laneAreaDetector id="1034.68.304_0" lanes="1034.68.304_0" pos="0" endPos="98.50" freq="300" file="output/hello.E2result.xml"/>
	<laneAreaDetector id="1034.68.304_1" lanes="1034.68.304_1" pos="0" endPos="98.50" freq="300" file="output/hello.E2result.xml"/>
	<laneAreaDetector id="1034.68.304_2" lanes="1034.68.304_2" pos="0" endPos="98.50" freq="300" file="output/hello.E2result.xml"/>
	<laneAreaDetector id="1034.68.304_3" lanes="1034.68.304_3" pos="0" endPos="98.50" freq="300" file="output/hello.E2result.xml"/>
	<laneAreaDetector id="1034.68.401_0" lanes="1034.68.401_0" pos="0" endPos="98.08" freq="300" file="output/hello.E2result.xml"/>
	<laneAreaDetector id="1034.68.401_1" lanes="1034.68.401_1" pos="0" endPos="98.08" freq="300" file="output/hello.E2result.xml"/>
	<laneAreaDetector id="1034.68.401_2" lanes="1034.68.401_2" pos="0" endPos="98.08" freq="300" file="output/hello.E2result.xml"/>
	<laneAreaDetector id="1034.68.401_3" lanes="1034.68.401_3" pos="0" endPos="98.08" freq="300" file="output/hello.E2result.xml"/>
	<laneAreaDetector id="1034.68.499_0" lanes="1034.68.499_0" pos="0" endPos="96.36" freq="300" file="output/hello.E2result.xml"/>
	<laneAreaDetector id="1034.68.499_1" lanes="1034.68.499_1" pos="0" endPos="96.36" freq="300" file="output/hello.E2result.xml"/>
	<laneAreaDetector id="1034.68.499_2" lanes="1034.68.499_2" pos="0" endPos="96.36" freq="300" file="output/hello.E2result.xml"/>
	<laneAreaDetector id="1034.68.499_3" lanes="1034.68.499_3" pos="0" endPos="96.36" freq="300" file="output/hello.E2result.xml"/>
	<laneAreaDetector id="1034.68.499.96_0" lanes="1034.68.499.96_0" pos="0" endPos="100.52" freq="300" file="output/hello.E2result.xml"/>
	<laneAreaDetector id="1034.68.499.96_1" lanes="1034.68.499.96_1" pos="0" endPos="100.52" freq="300" file="output/hello.E2result.xml"/>
	<laneAreaDetector id="1034.68.499.96_2" lanes="1034.68.499.96_2" pos="0" endPos="100.52" freq="300" file="output/hello.E2result.xml"/>
	<laneAreaDetector id="1034.68.499.96_3" lanes="1034.68.499.96_3" pos="0" endPos="100.52" freq="300" file="output/hello.E2result.xml"/>
	<laneAreaDetector id="1034.68.695_0" lanes="1034.68.695_0" pos="0" endPos="100.12" freq="300" file="output/hello.E2result.xml"/>
	<laneAreaDetector id="1034.68.695_1" lanes="1034.68.695_1" pos="0" endPos="100.12" freq="300" file="output/hello.E2result.xml"/>
	<laneAreaDetector id="1034.68.695_2" lanes="1034.68.695_2" pos="0" endPos="100.12" freq="300" file="output/hello.E2result.xml"/>
	<laneAreaDetector id="1034.68.695_3" lanes="1034.68.695_3" pos="0" endPos="100.12" freq="300" file="output/hello.E2result.xml"/>
	<laneAreaDetector id="1034.68.795_0" lanes="1034.68.795_0" pos="0" endPos="22.96" freq="300" file="output/hello.E2result.xml"/>
	<laneAreaDetector id="1034.68.795_1" lanes="1034.68.795_1" pos="0" endPos="22.96" freq="300" file="output/hello.E2result.xml"/>
	<laneAreaDetector id="1034.68.795_2" lanes="1034.68.795_2" pos="0" endPos="22.96" freq="300" file="output/hello.E2result.xml"/>
	<laneAreaDetector id="1034.68.795_3" lanes="1034.68.795_3" pos="0" endPos="22.96" freq="300" file="output/hello.E2result.xml"/>
	<laneAreaDetector id="1034.68.96_0" lanes="1034.68.96_0" pos="0" endPos="98.91" freq="300" file="output/hello.E2result.xml"/>
	<laneAreaDetector id="1034.68.96_1" lanes="1034.68.96_1" pos="0" endPos="98.91" freq="300" file="output/hello.E2result.xml"/>
	<laneAreaDetector id="1034.68.96_2" lanes="1034.68.96_2" pos="0" endPos="98.91" freq="300" file="output/hello.E2result.xml"/>
	<laneAreaDetector id="1034.68.96_3" lanes="1034.68.96_3" pos="0" endPos="98.91" freq="300" file="output/hello.E2result.xml"/>
	<laneAreaDetector id="1035_0" lanes="1035_0" pos="0" endPos="37.28" freq="300" file="output/hello.E2result.xml"/>
	<laneAreaDetector id="1035_1" lanes="1035_1" pos="0" endPos="37.28" freq="300" file="output/hello.E2result.xml"/>
	<laneAreaDetector id="1035_2" lanes="1035_2" pos="0" endPos="37.28" freq="300" file="output/hello.E2result.xml"/>
	<laneAreaDetector id="1035_3" lanes="1035_3" pos="0" endPos="37.28" freq="300" file="output/hello.E2result.xml"/>
	<laneAreaDetector id="1036_0" lanes="1036_0" pos="0" endPos="20.94" freq="300" file="output/hello.E2result.xml"/>
	<laneAreaDetector id="1036_1" lanes="1036_1" pos="0" endPos="20.94" freq="300" file="output/hello.E2result.xml"/>
	<laneAreaDetector id="1036_2" lanes="1036_2" pos="0" endPos="20.94" freq="300" file="output/hello.E2result.xml"/>
	<laneAreaDetector id="1036_3" lanes="1036_3" pos="0" endPos="20.94" freq="300" file="output/hello.E2result.xml"/>
	<laneAreaDetector id="1036.21_0" lanes="1036.21_0" pos="0" endPos="100.25" freq="300" file="output/hello.E2result.xml"/>
	<laneAreaDetector id="1036.21_1" lanes="1036.21_1" pos="0" endPos="100.25" freq="300" file="output/hello.E2result.xml"/>
	<laneAreaDetector id="1036.21_2" lanes="1036.21_2" pos="0" endPos="100.25" freq="300" file="output/hello.E2result.xml"/>
	<laneAreaDetector id="1036.21_3" lanes="1036.21_3" pos="0" endPos="100.25" freq="300" file="output/hello.E2result.xml"/>
	<laneAreaDetector id="1036.222_0" lanes="1036.222_0" pos="0" endPos="97.74" freq="300" file="output/hello.E2result.xml"/>
	<laneAreaDetector id="1036.222_1" lanes="1036.222_1" pos="0" endPos="97.74" freq="300" file="output/hello.E2result.xml"/>