<?xml version="1.0" ?>
  <routes>
    <vehicle id="浙D6D68S_0" speedFactor="0.6470923603192708" type="passenger" departLane="best" departSpeed="25.88369441277083" depart="0">
      <route edges="555.45 555.157 555.252 555.353 555.450 555.450.107 555.662 555.762 555.852 555.951 555.951.98 555.951.192 555.951.297 425 212.1_2 212.1_2.25 212.1_2.25.77 212.1_2.211 212.1_2.313 212.1_2.420 546.537 546.643 546.643.99 546.643.188 546.643.290 546.643.388 546.643.499 448 448.64 474.104 474.207 474.339 410 1010 1010.112 1010.211 1010.302 1009 523 524 524.83 524.194 524.300 524.384 524.483 524.483.100 524.570.112 524.570.112.90 489 489.59 511.115 511.222 511.304 511.402 511.496 511.588 511.686 1025 1024 1024.29 1024.133 1024.133.108 1024.324 406 377 377.7 378 378.25 378.25.105 378.244 378.359 378.359.86 378.483.57 378.483.150 378.483.250 378.483.250.102 378.483.456 378.483.559 378.483.559.95 378.483.750 378.483.750.95 535 535.50 535.53.106 535.53.215 535.53.304 535.53.304.96 556 556.41 556.41.101 557 557.20 557.20.88 557.111.84 557.278 557.278.142 525 525.37 525.142 525.229 525.330 525.434 525.530 421 421.25 421.124 424 440 440.56 440.56.67 440.56.168 440.56.269 440.56.269.105 440.56.477 413 1016 1016.35 1016.139 1016.228 1016.328 1015 507 507.28 507.28.101 507.28.201 507.28.301 507.28.398 507.28.494 442 442.31 561.81 561.183 561.183.102 561.403 561.403.83 561.403.189 561.403.276 561.403.393 561.403.491 561.403.600 561.403.600.98 561.403.802 561.403.900 561.1407 561.1407.99 561.1407.99.96 561.1407.194.106 561.1407.404 561.1407.500 561.1407.599 561.1407.700 561.1407.700.103 561.1407.806.97 504 504.36 504.36.109 504.36.107.101 504.36.206.94 504.36.299.98 504.36.495 504.36.590 504.36.691 504.36.791 504.36.887 504.1014 504.1014.100 1037 1036 1036.21 1036.24.97 1036.222 1036.319 1036.418 1036.519 1036.626 1036.726 1036.822 1033 1033.33 1032.101 291 292 292.18 292.111 292.218 292.325 289 289.34 287 287.74 287.76.97 287.271 287.271.95 298 307 307.34 307.130 307.130.98 579 590 590.79 590.178 590.178.105 590.365 590.479 590.479.103 590.479.198 590.479.198.93 288 288.39 306 306.72 574 574.24 574.24.98 574.127.97 293 308 308.97 309 309.58 309.61.94 309.157.97 309.258.97 310 310.39 310.141 310.141.101 310.344 310.344.95 310.547 310.547.100 310.547.102.98 310.547.203.96 310.547.405 310.547.500 310.547.605 310.547.605.101 310.547.702.105 584 596 596.44 596.137 596.137.108 596.137.209 596.137.313 596.137.313.101 596.137.416.92 596.137.610 596.137.715 596.137.715.97 596.137.814.101 596.1151 575 575.58 598.100 598.199 598.297 598.400 598.400.98 598.598 598.598.98 205 205.71 203 203.80 203.80.102 203.80.203 203.80.203.101 203.80.399 203.80.503 203.80.604 203.80.604.100 203.80.800"/>
    </vehicle>
    <vehicle id="沪EQD078_0" speedFactor="0.25" type="passenger" departLane="best" departSpeed="10" depart="0">
      <route edges="552.333.693.94.111 412 412.69 491.107 491.218 491.315 186 186.39 186.34.91 186.34.91.85 186.34.91.187 186.34.91.286 186.34.91.392 162.420 401 498 498.31 498.31.89 490 490.114 490.205 490.302 407 407.20 513 514 514.102 514.202 435 526 526.9 526.9.99"/>
    </vehicle>
    <vehicle id="赣CG1215_0" speedFactor="0.6892857142857147" type="passenger" departLane="best" departSpeed="27.571428571428587" depart="0">
      <route edges="379.1617.501.96 522 522.58 522.152 522.258 522.354 522.354.107 522.354.216 522.354.216.94 522.354.407 522.354.500 522.354.600 522.354.703 522.354.805 522.354.907 522.1360 486 447 447.50 447.150 447.252 456 501 501.73 501.171 501.171.91 501.377 501.470 471 458 458.28 428 428.79 428.187 428.187.99 428.295.93 821.73 821.164 41 41.91 41.191 41.299 41.299.83 555 555.45 555.157 555.252 555.353 555.450 555.450.107 555.662 555.762 555.852 555.951 555.951.98 555.951.192 555.951.297 425 212.1_2 212.1_2.25 212.1_2.25.77 212.1_2.211 212.1_2.313 212.1_2.420 546.537 546.643 546.643.99 546.643.188 546.643.290 546.643.388 546.643.499 448 448.64 474.104 474.207 474.339 410 1010 1010.112 1010.211 1010.302 1009 523 524 524.83 524.194 524.300 524.384 524.483 524.483.100 524.570.112 524.570.112.90 489 489.59 511.115 511.222 511.304 511.402 511.496 511.588 511.686 1025 1024 1024.29 1024.133 1024.133.108 1024.324 406 377 377.7 378 378.25 378.25.105 378.244 378.359 378.359.86 378.483.57 378.483.150 378.483.250 378.483.250.102 378.483.456 378.483.559 378.483.559.95 378.483.750 378.483.750.95 535 535.50 535.53.106 535.53.215 535.53.304 535.53.304.96 556 556.41 556.41.101 557 557.20 557.20.88 557.111.84 557.278 557.278.142 525 525.37 525.142 525.229 525.330 525.434 525.530 421 421.25 421.124 424 440 440.56 440.56.67 440.56.168 440.56.269 440.56.269.105 440.56.477 413 1016 1016.35 1016.139 1016.228 1016.328 1015 507 507.28 507.28.101 507.28.201 507.28.301 507.28.398 507.28.494 442 442.31 561.81 561.183 561.183.102 561.403 561.403.83 561.403.189 561.403.276 561.403.393 561.403.491 561.403.600 561.403.600.98 561.403.802 561.403.900 561.1407 561.1407.99 561.1407.99.96 561.1407.194.106 561.1407.404 561.1407.500 561.1407.599 561.1407.700 561.1407.700.103 561.1407.806.97 504 504.36 504.36.109 504.36.107.101 504.36.206.94 504.36.299.98 504.36.495 504.36.590 504.36.691 504.36.791 504.36.887 504.1014 504.1014.100 1037 1036 1036.21 1036.24.97 1036.222 1036.319 1036.418 1036.519 1036.626 1036.726 1036.822 1033 1033.33 1032.101 291 292 292.18 292.111 292.218 292.325 289 289.34 287 287.74 287.76.97"/>
    </vehicle>
    <vehicle id="浙B09E90_0" speedFactor="0.6301939058171752" type="passenger" departLane="best" departSpeed="25.207756232687007" depart="0">
      <route edges="535.53.215 535.53.304 535.53.304.96 556 556.41 556.41.101 557 557.20 557.20.88 557.111.84 557.278 557.278.142 525 525.37 525.142 525.229 525.330 525.434 525.530 421 421.25 421.124 424 440 440.56 440.56.67 440.56.168 440.56.269 440.56.269.105 440.56.477 413 1016 1016.35 1016.139 1016.228 1016.328 1015 507 507.28 507.28.101 507.28.201 507.28.301 507.28.398 507.28.494 442 442.31 561.81 561.183 561.183.102 561.403 561.403.83 561.403.189 561.403.276 561.403.393 561.403.491 561.403.600 561.403.600.98 561.403.802 561.403.900 561.1407 561.1407.99 561.1407.99.96 561.1407.194.106 561.1407.404 561.1407.500 561.1407.599 561.1407.700 561.1407.700.103 561.1407.806.97 504 504.36 504.36.109 504.36.107.101 504.36.206.94 504.36.299.98 504.36.495 504.36.590 504.36.691 504.36.791 504.36.887 504.1014 504.1014.100 1037 1036 1036.21 1036.24.97 1036.222 1036.319 1036.418 1036.519 1036.626 1036.726 1036.822 1033 1033.33 1032.101 291 292 292.18 292.111 292.218 292.325 289 289.34 287 287.74 287.76.97 287.271 287.271.95 298 307 307.34 307.130 307.130.98 579 590 590.79 590.178 590.178.105 590.365 590.479 590.479.103 590.479.198 590.479.198.93 288 288.39 306 306.72 574 574.24 574.24.98 574.127.97 293 308 308.97 309 309.58 309.61.94 309.157.97 309.258.97 310 310.39 310.141 310.141.101 310.344 310.344.95 310.547 310.547.100 310.547.102.98 310.547.203.96 310.547.405 310.547.500 310.547.605 310.547.605.101 310.547.702.105 584 596 596.44 596.137 596.137.108 596.137.209 596.137.313 596.137.313.101 596.137.416.92 596.137.610 596.137.715 596.137.715.97 596.137.814.101 596.1151 575 575.58 598.100 598.199 598.297 598.400 598.400.98 598.598 598.598.98 205 205.71 203 203.80 203.80.102 203.80.203 203.80.203.101 203.80.399 203.80.503 203.80.604 203.80.604.100 203.80.800 203.80.904 203.1090 576 592 592.22 592.118 592.220 592.316 573 578 578.21 578.111 593 593.35 593.137 593.238 593.326 593.326.111 601 601.82 601.159 601.230 601.325 601.435 601.533 601.647 602 602.49 602.49.78 602.49.183 602.49.291 602.49.418"/>
    </vehicle>
    <vehicle id="浙B393XV_0" speedFactor="0.6552795031055908" type="passenger" departLane="best" departSpeed="26.21118012422363" depart="0">
      <route edges="212.1_2.313 212.1_2.420 546.537 546.643 546.643.99 546.643.188 546.643.290 546.643.388 546.643.499 448 448.64 474.104 474.207 474.339 410 1010 1010.112 1010.211 1010.302 1009 523 524 524.83 524.194 524.300 524.384 524.483 524.483.100 524.570.112 524.570.112.90 489 489.59 511.115 511.222 511.304 511.402 511.496 511.588 511.686 1025 1024 1024.29 1024.133 1024.133.108 1024.324 406 377 377.7 378 378.25 378.25.105 378.244 378.359 378.359.86 378.483.57 378.483.150 378.483.250 378.483.250.102 378.483.456 378.483.559 378.483.559.95 378.483.750 378.483.750.95 535 535.50 535.53.106 535.53.215 535.53.304 535.53.304.96 556 556.41 556.41.101 557 557.20 557.20.88 557.111.84 557.278 557.278.142 525 525.37 525.142 525.229 525.330 525.434 525.530 421 421.25 421.124 424 440 440.56 440.56.67 440.56.168 440.56.269 440.56.269.105 440.56.477 413 1016 1016.35 1016.139 1016.228 1016.328 1015 507 507.28 507.28.101 507.28.201 507.28.301 507.28.398 507.28.494 442 442.31 561.81 561.183 561.183.102 561.403 561.403.83 561.403.189 561.403.276 561.403.393 561.403.491 561.403.600 561.403.600.98 561.403.802 561.403.900 561.1407 561.1407.99 561.1407.99.96 561.1407.194.106 561.1407.404 561.1407.500 561.1407.599 561.1407.700 561.1407.700.103 561.1407.806.97 504 504.36 504.36.109 504.36.107.101 504.36.206.94 504.36.299.98 504.36.495 504.36.590 504.36.691 504.36.791 504.36.887 504.1014 504.1014.100 1037 1036 1036.21 1036.24.97 1036.222 1036.319 1036.418 1036.519 1036.626 1036.726 1036.822 1033 1033.33 1032.101 291 292 292.18 292.111 292.218 292.325 289 289.34 287 287.74 287.76.97 287.271 287.271.95 298 307 307.34 307.130 307.130.98 579 590 590.79 590.178 590.178.105 590.365 590.479 590.479.103 590.479.198 590.479.198.93 288 288.39 306 306.72 574 574.24 574.24.98 574.127.97 293 308 308.97 309 309.58 309.61.94 309.157.97 309.258.97 310 310.39 310.141 310.141.101 310.344 310.344.95 310.547 310.547.100 310.547.102.98 310.547.203.96 310.547.405 310.547.500 310.547.605 310.547.605.101 310.547.702.105 584 596 596.44 596.137 596.137.108 596.137.209 596.137.313 596.137.313.101 596.137.416.92 596.137.610 596.137.715 596.137.715.97 596.137.814.101 596.1151 575 575.58 598.100 598.199 598.297 598.400 598.400.98 598.598 598.598.98 205 205.71 203 203.80 203.80.102 203.80.203 203.80.203.101 203.80.399 203.80.503 203.80.604 203.80.604.100 203.80.800"/>
    </vehicle>
    <vehicle id="浙BE4E96_0" speedFactor="0.7346241457858773" type="passenger" departLane="best" departSpeed="29.384965831435093" depart="0">
      <route edges="379.1617.501.96 522 522.58 522.152 522.258 522.354 522.354.107 522.354.216 522.354.216.94 522.354.407 522.354.500 522.354.600 522.354.703 522.354.805 522.354.907 522.1360 486 447 447.50 447.150 447.252 456 501 501.73 501.171 501.171.91 501.377 501.470 471 458 458.28 428 428.79 428.187 428.187.99 428.295.93 821.73 821.164 41 41.91 41.191 41.299 41.299.83 555 555.45 555.157 555.252 555.353 555.450 555.450.107 555.662 555.762 555.852 555.951 555.951.98 555.951.192 555.951.297 425 212.1_2 212.1_2.25 212.1_2.25.77 212.1_2.211 212.1_2.313 212.1_2.420 546.537 546.643 546.643.99 546.643.188 546.643.290 546.643.388 546.643.499 448 448.64 474.104 474.207 474.339 410 1010 1010.112 1010.211 1010.302 1009 523 524 524.83 524.194 524.300 524.384 524.483 524.483.100 524.570.112 524.570.112.90 489 489.59 511.115 511.222 511.304 511.402 511.496 511.588 511.686 1025 1024 1024.29 1024.133 1024.133.108 1024.324 406 377 377.7 378 378.25 378.25.105 378.244 378.359 378.359.86 378.483.57 378.483.150 378.483.250 378.483.250.102 378.483.456 378.483.559 378.483.559.95 378.483.750 378.483.750.95 535 535.50 535.53.106 535.53.215 535.53.304 535.53.304.96 556 556.41 556.41.101 557 557.20 557.20.88 557.111.84 557.278 557.278.142 525 525.37 525.142 525.229 525.330 525.434 525.530 421 421.25 421.124 424 440 440.56 440.56.67 440.56.168 440.56.269 440.56.269.105 440.56.477"/>
    </vehicle>
    <vehicle id="浙F0BQ52_0" speedFactor="0.6232091690544423" type="passenger" departLane="best" departSpeed="24.928366762177696" depart="0">
      <route edges="294.142.97 294.142.196 295 295.24 299 299.66 299.174 299.279 299.371 301 1030 1030.59 1030.59.97 1034 1034.68 1034.68.96 1034.68.195 1034.68.304 1034.68.401 1034.68.499 1034.68.499.96 1034.68.695 1034.68.795 1035 302 302.40 302.141 302.141.90 302.141.184 302.141.184.100 302.141.386 302.141.480 302.141.578 302.141.674 302.141.766 302.141.865 302.1118 472 558 558.99 558.203 558.203.100 558.203.199 558.203.293 558.203.393 558.702 558.800 558.902 558.902.102 558.902.198 558.902.298 558.902.400 558.902.400.106 558.902.603 558.902.603.116 558.902.805 558.902.906 558.1896 558.1896.119 558.1896.220 558.1896.322 452 452.46 502.84 502.84.94 502.84.191 502.84.291 502.477 502.575 1018 1017 1017.50 1017.152 1017.240 1017.342 381 463 463.29 463.131 463.131.105 463.336 464 464.20 464.83 391 497 497.28 497.127 531 531.23 531.23.95 532 532.57 532.157 532.244 532.349 532.456 547 547.119 547.119.81 547.119.171 547.119.259 547.119.355 547.119.355.102 482 529 529.99 529.189"/>
    </vehicle>
    <vehicle id="浙AK59R9_0" speedFactor="0.25" type="passenger" departLane="best" departSpeed="10" depart="0">
      <route edges="552.333.693.94.111 412 412.69 491.107 491.218 491.315 186 186.39 186.34.91 186.34.91.85 186.34.91.187 186.34.91.286 186.34.91.392 162.420 401 498 498.31 498.31.89 490 490.114 490.205 490.302 407 407.20 513 514 514.102 514.202 435 526 526.9 526.9.99"/>
    </vehicle>
    <vehicle id="浙B0W793_1" speedFactor="0.4180194805194798" type="coach" departLane="best" departSpeed="16.720779220779193" depart="0">
      <route edges="529.189 529.297 529.406 438 563 563.98 563.195 563.291 563.291.103 563.497 563.600 563.699 563.793 563.793.93 563.793.180 563.853.239 563.853.353 563.853.353.106 563.853.552 473 1021 1021.13 1021.94 1022 1022.48 1022.150 1023 521 521.53 521.53.99 521.53.190 521.53.190.93 521.53.190.190 521.53.190.272 521.53.190.378 521.53.190.473 518 518.22 518.113 518.113.99 518.113.197 518.113.296 518.113.379 519 519.68 519.178 519.291 1007 1007.55 1007.146 1007.244 488 459 459.90 459.221 459.323 459.412 550 550.25 550.25.110 550.25.208 550.25.308 550.25.397 212.1_1 550.525.104 550.525.221 550.525.221.105 550.525.429 550.525.536 550.525.614 398 552 552.34 552.140 552.234 552.333 552.333.98 552.333.187 552.333.187.99 552.333.388 552.333.388.108 552.333.388.205 552.333.693 552.333.693.94 552.333.693.94.111 412 412.69 491.107 491.218 491.315 186 186.39 186.34.91 186.34.91.85 186.34.91.187 186.34.91.286 186.34.91.392 162.420 401 498 498.31 498.31.89 490 490.114 490.205 490.302 407 407.20 513 514 514.102 514.202 435 526 526.9 526.9.99 526.9.200 526.9.301 526.9.404 526.9.503 526.9.598 526.9.693 526.9.785 526.9.895 526.1016 526.1016.94"/>
    </vehicle>
    <vehicle id="浙ADK0485_4" speedFactor="0.5809128630705389" type="passenger" departLane="best" departSpeed="23.236514522821555" depart="0">
      <route edges="840.125.184 840.125.310 840.125.417 840.646 840.727 840.727.117 841 841.60 841.158 841.265 841.361 841.430 841.430.77 841.430.162 841.430.252 595 595.79 595.79.87 595.79.190 595.79.290 595.79.392 589 591 591.94 591.188 591.288 591.385 588 599 599.46 599.46.106 599.46.211 599.46.211.95 599.46.406 599.46.506 599.46.506.104 599.46.706 599.46.706.101 599.46.907 599.1061 204 204.41 206 206.44 206.143 206.242 206.341 206.443 206.443.98 206.641 206.641.95 597 597.51 597.51.97 597.51.200 597.51.297 597.51.403 597.51.502 597.51.597 597.51.597.102 597.51.802 597.51.901 597.1064 597.1064.93 580 600 600.27"/>
    </vehicle>
    <vehicle id="皖L8P732_0" speedFactor="0.25" type="passenger" departLane="best" departSpeed="10" depart="0">
      <route edges="294.142.97 294.142.196 295 295.24 299 299.66 299.174 299.279 299.371 301 1030 1030.59 1030.59.97 1034 1034.68 1034.68.96 1034.68.195 1034.68.304 1034.68.401 1034.68.499 1034.68.499.96 1034.68.695 1034.68.795 1035 302 302.40 302.141 302.141.90 302.141.184 302.141.184.100 302.141.386 302.141.480 302.141.578 302.141.674 302.141.766 302.141.865 302.1118 472 558 558.99 558.203 558.203.100 558.203.199 558.203.293 558.203.393 558.702 558.800 558.902 558.902.102 558.902.198 558.902.298 558.902.400 558.902.400.106 558.902.603 558.902.603.116 558.902.805 558.902.906 558.1896 558.1896.119 558.1896.220 558.1896.322 452 452.46 502.84 502.84.94 502.84.191 502.84.291 502.477 502.575 1018 1017 1017.50 1017.152 1017.240"/>
    </vehicle>
    <vehicle id="皖S79193_1" speedFactor="0.390625" type="truck" departLane="best" departSpeed="15.625" depart="0">
      <route edges="526.9.99 526.9.200 526.9.301 526.9.404 526.9.503 526.9.598 526.9.693 526.9.785 526.9.895 526.1016 526.1016.94"/>
    </vehicle>
    <vehicle id="浙A335N6_0" speedFactor="0.25" type="passenger" departLane="best" departSpeed="10" depart="0">
      <route edges="840.125.184 840.125.310 840.125.417 840.646 840.727 840.727.117 841 841.60 841.158 841.265 841.361 841.430 841.430.77 841.430.162 841.430.252 595 595.79 595.79.87 595.79.190 595.79.290 595.79.392 589 591 591.94 591.188 591.288 591.385"/>
    </vehicle>
    <vehicle id="浙B83H12_1" speedFactor="0.390625" type="truck" departLane="best" departSpeed="15.625" depart="0">
      <route edges="526.9.99 526.9.200 526.9.301 526.9.404 526.9.503 526.9.598 526.9.693 526.9.785 526.9.895 526.1016 526.1016.94"/>
    </vehicle>
    <vehicle id="浙A5V579_1" speedFactor="0.47719087635054036" type="coach" departLane="best" departSpeed="19.087635054021614" depart="0">
      <route edges="440.56.477 413 1016 1016.35 1016.139 1016.228 1016.328 1015 507 507.28 507.28.101 507.28.201 507.28.301 507.28.398 507.28.494 442 442.31 561.81 561.183 561.183.102 561.403 561.403.83 561.403.189 561.403.276 561.403.393 561.403.491 561.403.600 561.403.600.98 561.403.802 561.403.900 561.1407 561.1407.99 561.1407.99.96 561.1407.194.106 561.1407.404 561.1407.500 561.1407.599 561.1407.700 561.1407.700.103 561.1407.806.97 504 504.36 504.36.109 504.36.107.101 504.36.206.94 504.36.299.98 504.36.495 504.36.590 504.36.691 504.36.791 504.36.887 504.1014 504.1014.100 1037 1036 1036.21 1036.24.97 1036.222 1036.319 1036.418 1036.519 1036.626 1036.726 1036.822 1033 1033.33 1032.101 291 292 292.18 292.111 292.218 292.325 289 289.34 287 287.74 287.76.97 287.271 287.271.95 298 307 307.34 307.130 307.130.98 579 590 590.79 590.178 590.178.105 590.365 590.479 590.479.103 590.479.198 590.479.198.93 288 288.39 306 306.72 574 574.24 574.24.98 574.127.97 293 308 308.97 309 309.58 309.61.94 309.157.97 309.258.97 310 310.39 310.141 310.141.101 310.344 310.344.95 310.547 310.547.100 310.547.102.98 310.547.203.96 310.547.405 310.547.500 310.547.605 310.547.605.101 310.547.702.105 584 596 596.44 596.137 596.137.108 596.137.209 596.137.313 596.137.313.101 596.137.416.92 596.137.610 596.137.715 596.137.715.97 596.137.814.101 596.1151 575 575.58 598.100 598.199 598.297 598.400 598.400.98 598.598 598.598.98 205 205.71 203 203.80 203.80.102 203.80.203 203.80.203.101 203.80.399 203.80.503 203.80.604 203.80.604.100 203.80.800 203.80.904 203.1090 576 592 592.22 592.118 592.220 592.316 573 578 578.21 578.111 593 593.35 593.137 593.238 593.326 593.326.111 601 601.82 601.159 601.230 601.325 601.435 601.533 601.647 602 602.49 602.49.78 602.49.183 602.49.291 602.49.418"/>
    </vehicle>
    <vehicle id="浙A5M5F2_0" speedFactor="0.25" type="passenger" departLane="best" departSpeed="10" depart="0">
      <route edges="526.9.99 526.9.200 526.9.301 526.9.404 526.9.503 526.9.598 526.9.693 526.9.785 526.9.895 526.1016 526.1016.94"/>
    </vehicle>
    <vehicle id="浙JB9818_1" speedFactor="0.46082949308755755" type="passenger" departLane="best" departSpeed="18.433179723502302" depart="0">
      <route edges="552.333.388 552.333.388.108 552.333.388.205 552.333.693 552.333.693.94 552.333.693.94.111 412 412.69 491.107 491.218 491.315 186 186.39 186.34.91 186.34.91.85 186.34.91.187 186.34.91.286 186.34.91.392 162.420 401 498 498.31 498.31.89 490 490.114 490.205 490.302 407 407.20 513 514 514.102 514.202 435 526 526.9 526.9.99 526.9.200 526.9.301 526.9.404 526.9.503 526.9.598 526.9.693 526.9.785 526.9.895 526.1016 526.1016.94 526.1016.198 526.1016.198.95 415 376"/>
    </vehicle>
    <vehicle id="浙B3U853_1" speedFactor="0.46296296296296297" type="coach" departLane="best" departSpeed="18.51851851851852" depart="1">
      <route edges="526.9.99 526.9.200 526.9.301 526.9.404 526.9.503 526.9.598 526.9.693 526.9.785 526.9.895 526.1016 526.1016.94"/>
    </vehicle>
    <vehicle id="浙DD18286_4" speedFactor="0.6506849315068498" type="passenger" departLane="best" departSpeed="26.027397260273993" depart="1">
      <route edges="440.56.477 413 1016 1016.35 1016.139 1016.228 1016.328 1015 507 507.28 507.28.101 507.28.201 507.28.301 507.28.398 507.28.494 442 442.31 561.81 561.183 561.183.102 561.403 561.403.83 561.403.189 561.403.276 561.403.393 561.403.491 561.403.600 561.403.600.98 561.403.802 561.403.900 561.1407 561.1407.99 561.1407.99.96 561.1407.194.106 561.1407.404 561.1407.500 561.1407.599 561.1407.700 561.1407.700.103 561.1407.806.97 504 504.36 504.36.109 504.36.107.101 504.36.206.94 504.36.299.98 504.36.495 504.36.590 504.36.691 504.36.791 504.36.887 504.1014 504.1014.100 1037 1036 1036.21 1036.24.97 1036.222 1036.319 1036.418 1036.519 1036.626 1036.726 1036.822 1033 1033.33 1032.101 291 292 292.18 292.111 292.218 292.325 289 289.34 287 287.74 287.76.97 287.271 287.271.95 298 307 307.34 307.130 307.130.98 579 590 590.79 590.178 590.178.105 590.365 590.479 590.479.103 590.479.198 590.479.198.93 288 288.39 306 306.72 574 574.24 574.24.98 574.127.97 293 308 308.97 309 309.58 309.61.94 309.157.97 309.258.97 310 310.39 310.141 310.141.101 310.344 310.344.95 310.547 310.547.100 310.547.102.98 310.547.203.96 310.547.405 310.547.500 310.547.605 310.547.605.101 310.547.702.105 584 596 596.44 596.137 596.137.108 596.137.209 596.137.313 596.137.313.101 596.137.416.92 596.137.610 596.137.715 596.137.715.97 596.137.814.101 596.1151 575 575.58 598.100 598.199 598.297 598.400 598.400.98 598.598 598.598.98 205 205.71 203 203.80 203.80.102 203.80.203 203.80.203.101 203.80.399 203.80.503 203.80.604 203.80.604.100 203.80.800"/>
    </vehicle>
    <vehicle id="浙B1Z527_1" speedFactor="0.5505952380952364" type="coach" departLane="best" departSpeed="22.023809523809454" depart="1">
      <route edges="552.333.388 552.333.388.108 552.333.388.205 552.333.693 552.333.693.94 552.333.693.94.111 412 412.69 491.107 491.218 491.315 186 186.39 186.34.91 186.34.91.85 186.34.91.187 186.34.91.286 186.34.91.392 162.420 401 498 498.31 498.31.89 490 490.114 490.205 490.302 407 407.20 513 514 514.102 514.202 435 526 526.9 526.9.99 526.9.200 526.9.301 526.9.404 526.9.503 526.9.598 526.9.693 526.9.785 526.9.895 526.1016 526.1016.94"/>
    </vehicle>
    <vehicle id="默A00000_9" speedFactor="0.25" type="passenger" departLane="best" departSpeed="10" depart="1">
      <route edges="529.189 529.297 529.406 438 563 563.98 563.195 563.291 563.291.103 563.497 563.600 563.699 563.793 563.793.93 563.793.180 563.853.239 563.853.353 563.853.353.106 563.853.552 473 1021 1021.13 1021.94 1022 1022.48 1022.150 1023 521 521.53 521.53.99 521.53.190 521.53.190.93 521.53.190.190 521.53.190.272 521.53.190.378 521.53.190.473 518 518.22 518.113 518.113.99 518.113.197 518.113.296 518.113.379 519 519.68 519.178 519.291 1007 1007.55 1007.146 1007.244 488 459 459.90 459.221 459.323 459.412 550 550.25 550.25.110 550.25.208 550.25.308 550.25.397 212.1_1 550.525.104 550.525.221 550.525.221.105 550.525.429 550.525.536 550.525.614 398 552 552.34 552.140 552.234 552.333 552.333.98 552.333.187 552.333.187.99 552.333.388"/>
    </vehicle>
    <vehicle id="浙DU18D6_0" speedFactor="0.6435643564356421" type="passenger" departLane="best" departSpeed="25.742574257425687" depart="1">
      <route edges="203.80.800 203.80.904 203.1090 576 592 592.22 592.118 592.220 592.316 573 578 578.21 578.111 593 593.35 593.137 593.238 593.326 593.326.111 601 601.82 601.159 601.230 601.325 601.435 601.533 601.647 602 602.49 602.49.78 602.49.183 602.49.291 602.49.418"/>
    </vehicle>
    <vehicle id="浙E18G89_0" speedFactor="0.25" type="passenger" departLane="best" departSpeed="10" depart="1">
      <route edges="840.125.184 840.125.310 840.125.417 840.646 840.727 840.727.117 841 841.60 841.158 841.265 841.361 841.430 841.430.77 841.430.162 841.430.252 595 595.79 595.79.87 595.79.190 595.79.290 595.79.392 589 591 591.94 591.188 591.288 591.385"/>
    </vehicle>
    <vehicle id="浙J2F0F1_0" speedFactor="0.6262425447316115" type="passenger" departLane="best" departSpeed="25.049701789264457" depart="1">
      <route edges="600.27 600.27.99 600.27.200 600.27.305 600.27.400 600.531 600.630 600.730 600.833 600.833.107 600.833.201 600.833.301 600.833.404 600.833.504 290 303 303.6 303.107 303.206 303.303 581 300 305 305.73 305.174 587 587.51 587.152 286 286.28 304 304.58 304.152 304.247 304.351 304.351.114 304.351.193 304.351.193.107 304.351.193.206 585 586 586.91 586.190 586.286 297 294 294.47 294.142 294.142.97 294.142.196 295 295.24 299 299.66 299.174 299.279 299.371 301 1030 1030.59 1030.59.97 1034 1034.68 1034.68.96 1034.68.195 1034.68.304 1034.68.401 1034.68.499 1034.68.499.96 1034.68.695 1034.68.795 1035 302 302.40 302.141 302.141.90 302.141.184 302.141.184.100 302.141.386 302.141.480 302.141.578 302.141.674 302.141.766 302.141.865 302.1118 472 558 558.99 558.203 558.203.100 558.203.199 558.203.293 558.203.393 558.702 558.800 558.902 558.902.102 558.902.198 558.902.298 558.902.400 558.902.400.106 558.902.603 558.902.603.116 558.902.805 558.902.906 558.1896 558.1896.119 558.1896.220 558.1896.322 452 452.46 502.84 502.84.94 502.84.191 502.84.291 502.477 502.575 1018 1017 1017.50 1017.152 1017.240 1017.342 381 463 463.29 463.131 463.131.105 463.336 464 464.20 464.83 391 497 497.28 497.127 531 531.23 531.23.95 532 532.57 532.157 532.244 532.349 532.456 547 547.119 547.119.81 547.119.171 547.119.259 547.119.355 547.119.355.102 482 529 529.99 529.189"/>
    </vehicle>
    <vehicle id="浙JG019H_0" speedFactor="0.690406976744186" type="passenger" departLane="best" departSpeed="27.61627906976744" depart="1">
      <route edges="294.142.97 294.142.196 295 295.24 299 299.66 299.174 299.279 299.371 301 1030 1030.59 1030.59.97 1034 1034.68 1034.68.96 1034.68.195 1034.68.304 1034.68.401 1034.68.499 1034.68.499.96 1034.68.695 1034.68.795 1035 302 302.40 302.141 302.141.90 302.141.184 302.141.184.100 302.141.386 302.141.480 302.141.578 302.141.674 302.141.766 302.141.865 302.1118 472 558 558.99 558.203 558.203.100 558.203.199 558.203.293 558.203.393 558.702 558.800 558.902 558.902.102 558.902.198 558.902.298 558.902.400 558.902.400.106 558.902.603 558.902.603.116 558.902.805 558.902.906 558.1896 558.1896.119 558.1896.220 558.1896.322 452 452.46 502.84 502.84.94 502.84.191 502.84.291 502.477 502.575 1018 1017 1017.50 1017.152 1017.240 1017.342 381 463 463.29 463.131 463.131.105 463.336 464 464.20 464.83 391 497 497.28 497.127 531 531.23 531.23.95 532 532.57 532.157 532.244 532.349 532.456 547 547.119 547.119.81 547.119.171 547.119.259 547.119.355 547.119.355.102 482 529 529.99 529.189 529.297 529.406 438 563 563.98 563.195 563.291 563.291.103 563.497 563.600 563.699 563.793 563.793.93 563.793.180 563.853.239 563.853.353 563.853.353.106 563.853.552 473 1021 1021.13 1021.94 1022 1022.48 1022.150 1023 521 521.53 521.53.99 521.53.190 521.53.190.93 521.53.190.190 521.53.190.272 521.53.190.378 521.53.190.473 518 518.22 518.113 518.113.99 518.113.197 518.113.296 518.113.379 519 519.68 519.178 519.291 1007 1007.55 1007.146 1007.244 488 459 459.90 459.221 459.323 459.412 550 550.25 550.25.110 550.25.208 550.25.308 550.25.397 212.1_1 550.525.104 550.525.221 550.525.221.105 550.525.429 550.525.536 550.525.614 398 552 552.34 552.140 552.234 552.333 552.333.98 552.333.187 552.333.187.99 552.333.388 552.333.388.108 552.333.388.205 552.333.693 552.333.693.94 552.333.693.94.111 412 412.69 491.107 491.218 491.315 186 186.39 186.34.91 186.34.91.85 186.34.91.187 186.34.91.286 186.34.91.392 162.420 401 498 498.31 498.31.89 490 490.114 490.205 490.302 407 407.20 513 514 514.102 514.202 435 526 526.9 526.9.99 526.9.200 526.9.301 526.9.404 526.9.503 526.9.598 526.9.693 526.9.785 526.9.895 526.1016 526.1016.94"/>
    </vehicle>
    <vehicle id="苏E55E2H_0" speedFactor="0.7500000000000011" type="passenger" departLane="best" departSpeed="30.000000000000043" depart="1">
      <route edges="600.27 600.27.99 600.27.200 600.27.305 600.27.400 600.531 600.630 600.730 600.833 600.833.107 600.833.201 600.833.301 600.833.404 600.833.504 290 303 303.6 303.107 303.206 303.303 581 300 305 305.73 305.174 587 587.51 587.152 286 286.28 304 304.58 304.152 304.247 304.351 304.351.114 304.351.193 304.351.193.107 304.351.193.206 585 586 586.91 586.190 586.286 297 294 294.47 294.142 294.142.97"/>
    </vehicle>
    <vehicle id="浙B1999W_0" speedFactor="0.6496305418719219" type="passenger" departLane="best" departSpeed="25.985221674876875" depart="1">