<?xml version="1.0" encoding="utf-8"?>
<additional>
	<edgeData id="edge_traffic" freq="300" file="C:\Users\admin\Desktop\高信项目\接口\web\gaoxin_interface\demo\output/speed_test.edg-tra.xml"/>
	<edgeData id="edge_emission" type="emissions" period="300" file="C:\Users\admin\Desktop\高信项目\接口\web\gaoxin_interface\demo\output/speed_test.edg-emi.xml" vTypes="passenger_sunny passenger_foggy passenger_rainy passenger_snowy coach_sunny coach_foggy coach_rainy coach_snowy truck_sunny truck_foggy truck_rainy truck_snowy trailer_sunny trailer_foggy trailer_rainy trailer_snowy" excludeEmpty="true"/>
	<edgeData id="edge_noise" type="harmonoise" period="300" file="C:\Users\admin\Desktop\高信项目\接口\web\gaoxin_interface\demo\output/speed_test.edg-noi.xml" vTypes="passenger_sunny passenger_foggy passenger_rainy passenger_snowy coach_sunny coach_foggy coach_rainy coach_snowy truck_sunny truck_foggy truck_rainy truck_snowy trailer_sunny trailer_foggy trailer_rainy trailer_snowy" excludeEmpty="true"/>
	<laneData id="lane_traffic" period="300" file="C:\Users\admin\Desktop\高信项目\接口\web\gaoxin_interface\demo\output/speed_test.lan-tra.xml" vTypes="passenger_sunny passenger_foggy passenger_rainy passenger_snowy coach_sunny coach_foggy coach_rainy coach_snowy truck_sunny truck_foggy truck_rainy truck_snowy trailer_sunny trailer_foggy trailer_rainy trailer_snowy" excludeEmpty="true"/>
	<laneData id="lane_emission" type="emissions" period="300" file="C:\Users\admin\Desktop\高信项目\接口\web\gaoxin_interface\demo\output/speed_test.lan-emi.xml" vTypes="passenger_sunny passenger_foggy passenger_rainy passenger_snowy coach_sunny coach_foggy coach_rainy coach_snowy truck_sunny truck_foggy truck_rainy truck_snowy trailer_sunny trailer_foggy trailer_rainy trailer_snowy" excludeEmpty="true"/>
	<laneData id="lane_noise" type="harmonoise" period="300" file="C:\Users\admin\Desktop\高信项目\接口\web\gaoxin_interface\demo\output/speed_test.lan-noi.xml" vTypes="passenger_sunny passenger_foggy passenger_rainy passenger_snowy coach_sunny coach_foggy coach_rainy coach_snowy truck_sunny truck_foggy truck_rainy truck_snowy trailer_sunny trailer_foggy trailer_rainy trailer_snowy" excludeEmpty="true"/>
</additional>